                                   MODFLOW 6
                U.S. GEOLOGICAL SURVEY MODULAR HYDROLOGIC MODEL
                          GROUNDWATER FLOW MODEL (GWF)
                            VERSION 6.1.0 12/12/2019

   MODFLOW 6 compiled Dec 13 2019 09:25:31 with IFORT compiler (ver. 19.0.5)

This software has been approved for release by the U.S. Geological 
Survey (USGS). Although the software has been subjected to rigorous 
review, the USGS reserves the right to update the software as needed 
pursuant to further analysis and review. No warranty, expressed or 
implied, is made by the USGS or the U.S. Government as to the 
functionality of the software and related material nor shall the 
fact of release constitute any such warranty. Furthermore, the 
software is released on condition that neither the USGS nor the U.S. 
Government shall be held liable for any damages resulting from its 
authorized or unauthorized use. Also refer to the USGS Water 
Resources Software User Rights Notice for complete use, copyright, 
and distribution information.


MODFLOW was compiled using uniform precision.
Precision of REAL variables: 15


 OPENED egebjerg.dis
 FILE TYPE:DIS6                   UNIT 1005   STATUS:OLD                 
 FORMAT:FORMATTED              ACCESS:SEQUENTIAL          
 ACTION:READ                


 OPENED egebjerg.npf
 FILE TYPE:NPF6                   UNIT 1006   STATUS:OLD                 
 FORMAT:FORMATTED              ACCESS:SEQUENTIAL          
 ACTION:READ                


 OPENED egebjerg.rch
 FILE TYPE:RCH6                   UNIT 1007   STATUS:OLD                 
 FORMAT:FORMATTED              ACCESS:SEQUENTIAL          
 ACTION:READ                


 OPENED egebjerg.drn
 FILE TYPE:DRN6                   UNIT 1008   STATUS:OLD                 
 FORMAT:FORMATTED              ACCESS:SEQUENTIAL          
 ACTION:READ                


 OPENED egebjerg.ghb
 FILE TYPE:GHB6                   UNIT 1009   STATUS:OLD                 
 FORMAT:FORMATTED              ACCESS:SEQUENTIAL          
 ACTION:READ                


 OPENED egebjerg.ic
 FILE TYPE:IC6                    UNIT 1010   STATUS:OLD                 
 FORMAT:FORMATTED              ACCESS:SEQUENTIAL          
 ACTION:READ                


 OPENED egebjerg.wel
 FILE TYPE:WEL6                   UNIT 1011   STATUS:OLD                 
 FORMAT:FORMATTED              ACCESS:SEQUENTIAL          
 ACTION:READ                


 OPENED egebjerg.oc
 FILE TYPE:OC6                    UNIT 1012   STATUS:OLD                 
 FORMAT:FORMATTED              ACCESS:SEQUENTIAL          
 ACTION:READ                

 NAMEFILE OPTIONS:
    FLOWS WILL BE SAVED TO BUDGET FILE SPECIFIED IN OUTPUT CONTROL

 DIS -- STRUCTURED GRID DISCRETIZATION PACKAGE, VERSION 2 : 3/27/2014 - INPUT READ FROM UNIT 1005


 # File generated by Flopy version 3.3.6 on 06/20/2023 at 13:13:05.
 PROCESSING DISCRETIZATION OPTIONS
    MODEL LENGTH UNIT IS METERS
    XORIGIN SPECIFIED AS     549000.000000000    
    YORIGIN SPECIFIED AS     6190600.00000000    
 END OF DISCRETIZATION OPTIONS
 PROCESSING DISCRETIZATION DIMENSIONS
    NLAY =      14
    NROW =     144
    NCOL =     121
 END OF DISCRETIZATION DIMENSIONS
 PROCESSING GRIDDATA

                     DELR =   100.0000    

                     DELC =   100.0000    
 END PROCESSING GRIDDATA

 THE SPECIFIED IDOMAIN RESULTS IN A REDUCED NUMBER OF CELLS.
 NUMBER OF USER NODES: 243936
 NUMBER OF NODES IN SOLUTION: 101702



 NPF -- NODE PROPERTY FLOW PACKAGE, VERSION 1, 3/30/2015 INPUT READ FROM UNIT 1006


 # File generated by Flopy version 3.3.6 on 06/20/2023 at 13:13:06.
 PROCESSING NPF OPTIONS
 END OF NPF OPTIONS

 WEL   -- WEL PACKAGE, VERSION 8, 2/22/2014 INPUT READ FROM UNIT 1011
 # File generated by Flopy version 3.3.6 on 06/20/2023 at 13:13:06.

 PROCESSING WEL OPTIONS
 END OF WEL OPTIONS

 PROCESSING WEL DIMENSIONS
    MAXBOUND =      76
 END OF WEL DIMENSIONS

 DRN   -- DRN PACKAGE, VERSION 8, 2/22/2014 INPUT READ FROM UNIT 1008
 # File generated by Flopy version 3.3.6 on 06/20/2023 at 13:13:06.

 PROCESSING DRN OPTIONS
 END OF DRN OPTIONS

 PROCESSING DRN DIMENSIONS
    MAXBOUND =   12058
 END OF DRN DIMENSIONS

 GHB   -- GHB PACKAGE, VERSION 8, 2/22/2014 INPUT READ FROM UNIT 1009
 # File generated by Flopy version 3.3.6 on 06/20/2023 at 13:13:06.

 PROCESSING GHB OPTIONS
 END OF GHB OPTIONS

 PROCESSING GHB DIMENSIONS
    MAXBOUND =     764
 END OF GHB DIMENSIONS

 RCH   -- RCH PACKAGE, VERSION 8, 2/22/2014 INPUT READ FROM UNIT 1007
 # File generated by Flopy version 3.3.6 on 06/20/2023 at 13:13:06.

 PROCESSING RCH OPTIONS
 END OF RCH OPTIONS

 PROCESSING RCH DIMENSIONS
    MAXBOUND =   12665
 END OF RCH DIMENSIONS

 IC -- INITIAL CONDITIONS PACKAGE, VERSION 8, 3/28/2015 INPUT READ FROM UNIT 1010
 # File generated by Flopy version 3.3.6 on 06/20/2023 at 13:13:06.
 PROCESSING GRIDDATA

     INITIAL HEAD =   50.00000    
 END PROCESSING GRIDDATA
 PROCESSING GRIDDATA

                ICELLTYPE = 0
 K33 not provided.  Assuming K33 = K.
 K22 not provided.  Assuming K22 = K.
 END PROCESSING GRIDDATA
    BINARY GRID INFORMATION WILL BE WRITTEN TO:
      UNIT NUMBER: 1014
      FILE NAME: C:\Users\au540480\Documents\Hydrosim_project\Paper 2\Model\Simulation2\egebjerg.dis.grb

 OPENED C:\Users\au540480\Documents\Hydrosim_project\Paper 2\Model\Simulation2\egebjerg.dis.grb
 FILE TYPE:DATA(BINARY)   UNIT 1014   STATUS:REPLACE             
 FORMAT:UNFORMATTED            ACCESS:STREAM              
 ACTION:READWRITE           

      THE LAST TIME STEP WILL BE PRINTED
      THE LAST TIME STEP WILL BE PRINTED
 # File generated by Flopy version 3.3.6 on 06/20/2023 at 13:13:06.
 PROCESSING OC OPTIONS
    BUDGET INFORMATION WILL BE WRITTEN TO:
      UNIT NUMBER: 1015
      FILE NAME: egebjerg.cbb

 OPENED egebjerg.cbb
 FILE TYPE:DATA(BINARY)   UNIT 1015   STATUS:REPLACE             
 FORMAT:UNFORMATTED            ACCESS:STREAM              
 ACTION:READWRITE           

    HEAD INFORMATION WILL BE WRITTEN TO:
      UNIT NUMBER: 1016
      FILE NAME: egebjerg.hds

 OPENED egebjerg.hds
 FILE TYPE:DATA(BINARY)   UNIT 1016   STATUS:REPLACE             
 FORMAT:UNFORMATTED            ACCESS:STREAM              
 ACTION:READWRITE           

 END OF OC OPTIONS

 BEGIN READING OUTPUT CONTROL FOR STRESS PERIOD 1
      ALL TIME STEPS WILL BE SAVED
      ALL TIME STEPS WILL BE SAVED
      THE LAST TIME STEP WILL BE PRINTED

 END READING OUTPUT CONTROL FOR STRESS PERIOD 1

 INNER ITERATION SUMMARY
 --------------------------------------------------------------------------------------------------------------------------------
     TOTAL      OUTER     INNER                    MAXIMUM CHANGE        MAXIMUM                  MAXIMUM RESIDUAL        MAXIMUM
 ITERATION  ITERATION ITERATION                    MODEL-(CELLID)         CHANGE                    MODEL-(CELLID)       RESIDUAL
 --------------------------------------------------------------------------------------------------------------------------------
          1         1         1                   1_GWF-(8,84,58)  -56.22102                     1_GWF-(9,131,115)   18054.73    
          2         1         2                 1_GWF-(12,123,71)  -86.72860                     1_GWF-(7,135,116)  -7416.952    
          3         1         3                  1_GWF-(6,122,52)   51.00493                     1_GWF-(5,108,106)  -3842.943    
          4         1         4                 1_GWF-(5,109,106)  -22.66023                     1_GWF-(5,108,106)   6057.300    
          5         1         5                 1_GWF-(5,109,106)   19.50518                     1_GWF-(5,108,106)  -7788.113    
          6         1         6                 1_GWF-(5,108,106)   14.53676                     1_GWF-(5,108,106)   3706.743    
          7         1         7                 1_GWF-(12,120,78)   11.94582                      1_GWF-(5,120,79)   1533.042    
          8         1         8                 1_GWF-(12,120,78)  -10.12682                      1_GWF-(5,119,79)   1383.849    
          9         1         9                 1_GWF-(12,138,52)  -7.521161                      1_GWF-(9,138,54)  -1258.893    
         10         1        10                  1_GWF-(9,139,54)  -4.612893                      1_GWF-(9,138,54)   958.8023    
         11         1        11                 1_GWF-(12,138,52)  -3.314509                      1_GWF-(9,138,54)  -721.2555    
         12         1        12                 1_GWF-(12,126,72)  -2.862521                       1_GWF-(7,74,43)  -499.1457    
         13         1        13                 1_GWF-(11,138,53)   1.434012                     1_GWF-(5,108,106)  -280.8718    
         14         1        14                 1_GWF-(12,126,69)   1.610764                     1_GWF-(5,108,106)   240.6078    
         15         1        15                 1_GWF-(11,138,53)   1.019941                       1_GWF-(7,74,43)  -225.5997    
         16         1        16                 1_GWF-(11,138,53)   1.139006                       1_GWF-(7,74,43)   200.1598    
         17         1        17                 1_GWF-(12,138,52)   1.325618                      1_GWF-(9,138,54)   158.2748    
         18         1        18                 1_GWF-(12,139,54)   1.150734                       1_GWF-(7,74,43)  -150.2574    
         19         1        19                 1_GWF-(12,126,69) -0.9383450                      1_GWF-(9,138,54)   205.4250    
         20         1        20                 1_GWF-(12,120,44)  0.5729814                     1_GWF-(7,122,114)  -105.6186    
         21         1        21                 1_GWF-(12,126,69)  0.9098098                     1_GWF-(5,128,105)  -125.5223    
         22         1        22                 1_GWF-(11,138,54) -0.7571488                       1_GWF-(7,74,43)   152.3976    
         23         1        23                 1_GWF-(11,138,54) -0.8824824                     1_GWF-(7,127,113)  -79.33953    
         24         1        24                  1_GWF-(9,139,54) -0.8417776                     1_GWF-(5,107,107)   81.28997    
         25         1        25                 1_GWF-(12,138,52) -0.8034662                     1_GWF-(7,127,113)   133.7706    
         26         1        26                 1_GWF-(14,140,71) -0.5835759                     1_GWF-(5,108,106)  -108.0284    
         27         1        27                 1_GWF-(12,121,79) -0.7389183                     1_GWF-(7,127,113)  -130.2771    
         28         1        28                1_GWF-(12,139,103) -0.5662010                       1_GWF-(7,74,43)   111.0723    
         29         1        29                 1_GWF-(12,138,52)  0.6665533                      1_GWF-(5,119,79)  -110.7661    
         30         1        30                  1_GWF-(9,139,54)  0.6849840                     1_GWF-(5,108,106)   104.0354    
         31         1        31                  1_GWF-(9,138,54)  0.5934224                     1_GWF-(7,127,114)   72.29927    
         32         1        32                 1_GWF-(11,138,54)  0.5870791                     1_GWF-(7,127,113)   89.41599    
         33         1        33                 1_GWF-(12,121,79)  0.6154478                     1_GWF-(7,127,113)   113.1768    
         34         1        34                 1_GWF-(12,130,63)  0.4355355                     1_GWF-(7,125,112)  -83.90517    
         35         1        35                 1_GWF-(12,121,79) -0.5910471                     1_GWF-(7,127,113)  -155.0694    
         36         1        36                 1_GWF-(12,130,63) -0.3708348                    1_GWF-(11,104,101)   70.33013    
         37         1        37                 1_GWF-(12,126,72)  0.4513469                     1_GWF-(7,127,113)   112.7850    
         38         1        38                 1_GWF-(12,139,54) -0.4106133                    1_GWF-(11,104,101)  -79.43899    
         39         1        39                 1_GWF-(11,138,54) -0.3947413                     1_GWF-(7,125,112)  -56.83476    
         40         1        40                 1_GWF-(12,138,52) -0.2489502                    1_GWF-(11,104,101)   60.70289    
         41         1        41                 1_GWF-(12,126,72)  0.2357009                     1_GWF-(7,125,112)   63.23534    
         42         1        42                1_GWF-(12,139,101) -0.2393746                     1_GWF-(7,127,113)   53.69481    
         43         1        43                 1_GWF-(12,121,79) -0.2218362                     1_GWF-(7,125,112)  -51.33724    
         44         1        44                1_GWF-(12,139,103) -0.2134507                     1_GWF-(7,127,113)  -46.31861    
         45         1        45                1_GWF-(12,139,103) -0.1395431                    1_GWF-(11,104,101)   43.77087    
         46         1        46                 1_GWF-(12,126,72)  0.1445299                     1_GWF-(7,126,114)   42.44862    
         47         1        47                1_GWF-(12,139,101) -0.1983887                     1_GWF-(7,127,113)   60.82784    
         48         1        48                 1_GWF-(12,138,52)  0.1603017                     1_GWF-(7,125,112)  -45.24937    
         49         1        49                1_GWF-(12,137,100) -0.1559676                     1_GWF-(7,126,114)  -43.02902    
         50         1        50                 1_GWF-(12,121,79)  0.1132755                     1_GWF-(7,127,113)  -55.01113    
         51         2         1                1_GWF-(10,119,104)  -26.04781                       1_GWF-(7,89,39)   1176.347    
         52         2         2                 1_GWF-(12,126,79)  -19.65125                     1_GWF-(5,101,103)   2078.925    
         53         2         3                 1_GWF-(5,101,103)  -10.54933                     1_GWF-(5,101,103)  -2236.279    
         54         2         4                 1_GWF-(5,101,103)   7.001741                     1_GWF-(5,102,103)  -1748.590    
         55         2         5                1_GWF-(11,101,103)  -5.113865                     1_GWF-(5,101,103)  -650.0510    
         56         2         6                  1_GWF-(6,137,50)  -4.920864                     1_GWF-(11,122,33)   501.7567    
         57         2         7                  1_GWF-(6,111,49)   5.100841                     1_GWF-(11,122,33)  -554.4599    
         58         2         8                 1_GWF-(5,128,105)   3.070133                     1_GWF-(5,128,105)   428.3560    
         59         2         9                 1_GWF-(5,129,105)   2.134080                     1_GWF-(5,101,103)   407.1631    
         60         2        10                 1_GWF-(7,128,105)   1.522666                       1_GWF-(5,85,50)  -245.6188    
         61         2        11                1_GWF-(10,120,104)   1.816435                      1_GWF-(7,124,34)  -287.3361    
         62         2        12                1_GWF-(12,122,104)   1.293001                      1_GWF-(5,101,69)   237.5336    
         63         2        13                  1_GWF-(6,137,53)  0.9534522                     1_GWF-(5,101,103)  -270.6190    
         64         2        14                 1_GWF-(5,128,105)  -1.014433                     1_GWF-(5,128,105)  -166.3455    
         65         2        15                  1_GWF-(6,133,52)  0.8934377                       1_GWF-(5,85,50)   164.1109    
         66         2        16                  1_GWF-(6,108,49)   1.293885                    1_GWF-(11,117,106)   137.7540    
         67         2        17                  1_GWF-(6,137,53)  0.7760855                     1_GWF-(5,101,103)   161.5157    
         68         2        18                  1_GWF-(6,108,49) -0.7104374                    1_GWF-(11,117,106)  -107.8200    
         69         2        19                  1_GWF-(6,137,53) -0.6130269                     1_GWF-(5,118,105)  -116.6325    
         70         2        20                  1_GWF-(6,108,49)  0.5019927                     1_GWF-(5,101,103)   121.7166    
         71         2        21                 1_GWF-(5,101,103) -0.4822452                     1_GWF-(5,118,105)   108.0375    
         72         2        22                  1_GWF-(6,108,49) -0.6324015                    1_GWF-(11,118,107)  -81.27723    
         73         2        23                 1_GWF-(5,131,104)  0.4591799                     1_GWF-(11,122,33)   127.2637    
         74         2        24                  1_GWF-(6,108,49)  0.5398221                     1_GWF-(5,131,104)   79.44528    
         75         2        25                 1_GWF-(5,131,104) -0.4981379                     1_GWF-(11,122,33)  -110.1087    
         76         2        26                1_GWF-(10,118,104)  0.4478504                     1_GWF-(5,131,104)  -73.10792    
         77         2        27                 1_GWF-(12,128,99) -0.3097781                     1_GWF-(5,118,105)  -103.9339    
         78         2        28                1_GWF-(10,118,104) -0.5435992                    1_GWF-(11,117,106)   79.06884    
         79         2        29                 1_GWF-(5,123,108) -0.3641238                     1_GWF-(5,118,105)   116.9408    
         80         2        30                1_GWF-(10,118,104)  0.5730290                    1_GWF-(11,117,106)  -88.89213    
         81         2        31                  1_GWF-(6,112,49) -0.3579198                    1_GWF-(11,118,107)  -104.3211    
         82         2        32                1_GWF-(10,118,104) -0.5313865                     1_GWF-(5,118,105)  -82.30948    
         83         2        33                1_GWF-(10,118,104) -0.3210476                    1_GWF-(11,118,107)   68.50289    
         84         2        34                1_GWF-(10,118,104)  0.3476485                     1_GWF-(5,118,105)   95.41124    
         85         2        35                1_GWF-(10,118,104)  0.5194302                     1_GWF-(5,101,103)  -65.59022    
         86         2        36                 1_GWF-(12,123,34)  0.2655829                     1_GWF-(5,118,105)  -75.84491    
         87         2        37                1_GWF-(10,118,104) -0.4529228                    1_GWF-(11,117,106)   62.67115    
         88         2        38                1_GWF-(10,118,104) -0.2207526                    1_GWF-(11,118,107)   62.93007    
         89         2        39                1_GWF-(10,118,104)  0.2632802                     1_GWF-(5,118,105)   67.81356    
         90         2        40                1_GWF-(10,118,104)  0.3393142                      1_GWF-(5,126,37)  -45.54662    
         91         2        41                 1_GWF-(12,123,34)  0.2375859                     1_GWF-(5,118,105)  -56.78143    
         92         2        42                1_GWF-(10,118,104) -0.3153754                       1_GWF-(5,85,50)  -57.38508    
         93         2        43                1_GWF-(10,118,104) -0.2269657                      1_GWF-(7,123,34)  -41.02223    
         94         2        44                 1_GWF-(12,123,34) -0.2418063                     1_GWF-(5,118,105)   52.96789    
         95         2        45                1_GWF-(10,118,104)  0.2760192                     1_GWF-(11,122,33)  -54.80396    
         96         2        46                1_GWF-(10,118,104)  0.1752970                      1_GWF-(7,123,34)   36.38752    
         97         2        47                 1_GWF-(12,123,34)  0.2248940                     1_GWF-(11,122,33)   52.99325    
         98         2        48                1_GWF-(10,118,104) -0.2414607                     1_GWF-(11,122,33)   63.29559    
         99         2        49                1_GWF-(10,118,104) -0.1672785                      1_GWF-(7,126,37)  -34.86369    
        100         2        50                 1_GWF-(12,123,34) -0.2002059                     1_GWF-(11,122,33)  -43.87721    
        101         3         1                1_GWF-(10,127,105)  -18.67307                      1_GWF-(11,73,42)   431.7802    
        102         3         2                   1_GWF-(6,99,73)  -10.34335                      1_GWF-(5,112,46)   582.1820    
        103         3         3                 1_GWF-(12,127,81)  -4.983096                      1_GWF-(5,115,61)   331.8572    
        104         3         4                 1_GWF-(5,120,103)   5.361608                      1_GWF-(5,115,61)  -583.5025    
        105         3         5                  1_GWF-(6,111,50)  -3.200549                      1_GWF-(5,115,61)   756.8574    
        106         3         6                 1_GWF-(5,120,102)  -1.964020                      1_GWF-(5,115,61)  -412.6072    
        107         3         7                1_GWF-(10,121,103)  -2.131485                     1_GWF-(5,128,105)  -194.3290    
        108         3         8                 1_GWF-(5,128,105)   1.191791                     1_GWF-(5,128,105)   191.3306    
        109         3         9                 1_GWF-(5,129,105)   1.056993                      1_GWF-(5,115,61)  -248.4289    
        110         3        10                 1_GWF-(5,128,105)  0.9102502                      1_GWF-(5,115,61)   216.3292    
        111         3        11                 1_GWF-(6,120,103) -0.9976772                      1_GWF-(5,115,61)  -121.3296    
        112         3        12                1_GWF-(10,118,102)  -1.064665                      1_GWF-(7,124,33)  -113.7487    
        113         3        13                1_GWF-(10,120,103)  0.8689987                     1_GWF-(7,122,114)   97.48304    
        114         3        14                1_GWF-(10,118,102)   1.081215                      1_GWF-(5,115,61)  -123.1519    
        115         3        15                  1_GWF-(6,111,50) -0.4814335                      1_GWF-(5,115,61)   120.9526    
        116         3        16                1_GWF-(10,118,102) -0.8659783                     1_GWF-(11,122,33)   108.8598    
        117         3        17                1_GWF-(10,120,102) -0.5428667                     1_GWF-(7,122,114)  -85.27617    
        118         3        18                1_GWF-(10,118,102)  0.7482465                      1_GWF-(5,115,61)   108.3800    
        119         3        19                 1_GWF-(5,120,102)  0.5735822                     1_GWF-(11,122,33)   101.4122    
        120         3        20                1_GWF-(10,118,102) -0.5570000                     1_GWF-(7,122,114)  -68.91322    
        121         3        21                1_GWF-(10,120,102) -0.4788545                     1_GWF-(11,122,33)  -84.58176    
        122         3        22                 1_GWF-(12,126,45)  0.3911556                      1_GWF-(5,115,61)  -71.23713    
        123         3        23                 1_GWF-(12,110,92) -0.3556961                     1_GWF-(11,122,33)   70.20551    
        124         3        24                1_GWF-(10,121,103)  0.3961678                       1_GWF-(7,93,78)  -76.54521    
        125         3        25                  1_GWF-(6,138,55) -0.3470602                      1_GWF-(7,103,53)  -63.92909    
        126         3        26                 1_GWF-(12,126,45)  0.3563162                       1_GWF-(7,93,78)   76.69631    
        127         3        27                 1_GWF-(12,100,99) -0.4103745                      1_GWF-(7,103,53)   91.77864    
        128         3        28                 1_GWF-(12,126,45) -0.4330268                       1_GWF-(7,93,78)  -68.14291    
        129         3        29                 1_GWF-(13,101,99)  0.3944165                       1_GWF-(7,93,78)  -92.21561    
        130         3        30                1_GWF-(12,120,103)  0.3518185                      1_GWF-(7,103,53)  -62.35243    
        131         3        31                   1_GWF-(4,97,76) -0.3987218                       1_GWF-(7,93,78)   108.4516    
        132         3        32                 1_GWF-(12,122,35) -0.3186771                      1_GWF-(7,103,53)   61.86597    
        133         3        33                   1_GWF-(4,97,76)  0.2427541                       1_GWF-(7,93,78)  -92.77445    
        134         3        34                 1_GWF-(12,122,35)  0.3415174                      1_GWF-(7,103,53)  -73.05680    
        135         3        35                1_GWF-(12,100,104) -0.2322422                       1_GWF-(7,93,78)   64.67396    
        136         3        36                 1_GWF-(13,101,99) -0.3543401                       1_GWF-(7,93,78)   103.9911    
        137         3        37                 1_GWF-(12,122,35) -0.2482577                      1_GWF-(7,103,53)   67.15847    
        138         3        38                 1_GWF-(12,123,34) -0.2628219                       1_GWF-(7,93,78)  -92.91001    
        139         3        39                 1_GWF-(12,122,35)  0.2774631                       1_GWF-(7,93,78)  -81.83299    
        140         3        40                 1_GWF-(12,122,33) -0.2006212                      1_GWF-(7,123,34)   55.68148    
        141         3        41                 1_GWF-(12,123,34)  0.2648691                       1_GWF-(7,93,78)   92.82944    
        142         3        42                 1_GWF-(12,122,35) -0.2232079                     1_GWF-(11,122,33)   64.75116    
        143         3        43                 1_GWF-(12,122,33)  0.1681849                      1_GWF-(7,123,34)  -47.40689    
        144         3        44                 1_GWF-(12,123,34) -0.2181742                       1_GWF-(7,93,78)  -87.21212    
        145         3        45                 1_GWF-(12,122,35)  0.2025481                       1_GWF-(7,93,78)  -67.34720    
        146         3        46                 1_GWF-(12,122,33) -0.1681607                      1_GWF-(7,123,34)   47.56576    
        147         3        47                 1_GWF-(12,123,34)  0.1882378                       1_GWF-(7,93,78)   73.59283    
        148         3        48                 1_GWF-(12,122,35) -0.1874232                       1_GWF-(7,93,78)   81.06176    
        149         3        49                 1_GWF-(12,122,33)  0.1787313                      1_GWF-(7,123,34)  -43.86128    
        150         3        50                 1_GWF-(12,123,34) -0.1317345                      1_GWF-(7,122,35)   45.26606    
        151         4         1                  1_GWF-(6,105,82)  -7.771281                       1_GWF-(3,98,67)   257.7810    
        152         4         2                   1_GWF-(6,97,69)  -8.732181                      1_GWF-(5,127,91)  -200.6008    
        153         4         3                   1_GWF-(6,97,69)   4.055084                     1_GWF-(11,124,39)  -226.6899    
        154         4         4                  1_GWF-(6,105,82)  -2.293375                      1_GWF-(7,125,39)  -240.3724    
        155         4         5                   1_GWF-(6,97,69)  -4.765663                      1_GWF-(5,115,61)   241.7699    
        156         4         6                  1_GWF-(4,108,73)  -1.032144                     1_GWF-(5,128,105)   184.3395    
        157         4         7                   1_GWF-(6,97,69)   1.978479                     1_GWF-(5,128,105)  -155.5114    
        158         4         8                   1_GWF-(6,97,69) -0.7094068                     1_GWF-(5,128,105)   111.1767    
        159         4         9                   1_GWF-(6,97,69)  -1.469946                     1_GWF-(5,128,105)  -84.27547    
        160         4        10                   1_GWF-(6,97,69)  0.8893283                      1_GWF-(5,115,61)   98.78150    
        161         4        11                   1_GWF-(6,97,69)  0.7109154                      1_GWF-(5,115,61)  -115.6447    
        162         4        12                   1_GWF-(6,97,69) -0.9280049                      1_GWF-(5,115,61)   66.35168    
        163         4        13                   1_GWF-(6,97,69) -0.4888269                      1_GWF-(7,103,53)   60.66691    
        164         4        14                   1_GWF-(6,97,69)  0.9211637                     1_GWF-(7,122,114)   48.66328    
        165         4        15                 1_GWF-(10,125,91)  0.3146377                     1_GWF-(5,128,105)   48.84138    
        166         4        16                 1_GWF-(12,131,97) -0.5471395                     1_GWF-(5,128,105)  -50.29684    
        167         4        17                 1_GWF-(10,125,91) -0.2888524                      1_GWF-(7,103,53)   43.03843    
        168         4        18                 1_GWF-(12,131,97)  0.4730703                      1_GWF-(7,103,53)  -50.88769    
        169         4        19                 1_GWF-(10,125,91)  0.3335533                     1_GWF-(7,122,114)   40.37769    
        170         4        20                   1_GWF-(6,99,66)  0.3997051                      1_GWF-(7,103,53)   59.02466    
        171         4        21                 1_GWF-(12,131,97)  0.4150615                     1_GWF-(7,122,114)  -44.77806    
        172         4        22                   1_GWF-(6,99,66) -0.3627922                      1_GWF-(7,103,53)  -62.75657    
        173         4        23                 1_GWF-(12,131,97) -0.3813627                      1_GWF-(7,102,54)  -53.25868    
        174         4        24                   1_GWF-(6,97,68) -0.3555404                      1_GWF-(5,126,91)   58.20383    
        175         4        25                 1_GWF-(12,131,97)  0.3598078                      1_GWF-(7,102,54)   38.29417    
        176         4        26                 1_GWF-(10,125,91)  0.3187631                      1_GWF-(5,126,91)  -56.62788    
        177         4        27                 1_GWF-(12,131,97) -0.2570101                      1_GWF-(7,102,54)  -38.94399    
        178         4        28                 1_GWF-(12,131,97) -0.2824407                      1_GWF-(5,126,91)   62.37768    
        179         4        29                 1_GWF-(12,129,63) -0.2295390                      1_GWF-(7,102,54)   57.47903    
        180         4        30                 1_GWF-(12,131,97)  0.2539198                      1_GWF-(5,126,91)  -65.48782    
        181         4        31                  1_GWF-(6,126,88) -0.2595138                      1_GWF-(7,102,54)  -59.39157    
        182         4        32                 1_GWF-(12,131,97) -0.3321861                      1_GWF-(5,126,91)   56.23788    
        183         4        33                 1_GWF-(10,125,91) -0.2499679                      1_GWF-(5,126,91)   55.53844    
        184         4        34                 1_GWF-(12,131,97)  0.3060397                      1_GWF-(7,103,53)  -60.12667    
        185         4        35                 1_GWF-(10,125,91)  0.1794553                      1_GWF-(5,126,91)  -58.14620    
        186         4        36                 1_GWF-(12,131,97) -0.2149038                      1_GWF-(7,103,53)   48.59458    
        187         4        37                 1_GWF-(12,131,97) -0.2043161                      1_GWF-(5,126,91)   45.21502    
        188         4        38                  1_GWF-(6,126,88)  0.1368819                      1_GWF-(7,102,54)   44.67242    
        189         4        39                 1_GWF-(12,131,97)  0.1762166                       1_GWF-(5,97,63)   35.60922    
        190         4        40                 1_GWF-(12,130,63)  0.1194184                      1_GWF-(5,126,91)  -42.03646    
        191         4        41                 1_GWF-(12,123,34) -0.1182553                      1_GWF-(7,103,53)   44.40273    
        192         4        42                 1_GWF-(12,131,97) -0.1366230                       1_GWF-(5,97,63)  -31.15900    
        193         4        43                 1_GWF-(12,129,63) -0.1018897                      1_GWF-(7,102,54)   39.89370    
        194         4        44                  1_GWF-(6,126,89)  0.1093814                      1_GWF-(7,103,53)  -41.42216    
        195         4        45                 1_GWF-(12,131,97)  0.1145681                       1_GWF-(5,97,63)   27.40951    
        196         4        46                  1_GWF-(6,126,88) -0.8535407E-01                  1_GWF-(7,102,54)  -38.58305    
        197         4        47                 1_GWF-(12,123,34) -0.9821422E-01                  1_GWF-(7,103,53)   37.57979    
        198         4        48                 1_GWF-(12,122,33) -0.9475629E-01                   1_GWF-(5,97,63)  -24.59711    
        199         4        49                 1_GWF-(12,130,63) -0.6925291E-01                  1_GWF-(7,102,54)   38.06694    
        200         4        50                 1_GWF-(12,123,34)  0.8665900E-01                  1_GWF-(7,103,53)  -32.86746    
        201         5         1                   1_GWF-(6,98,66)  -6.079156                      1_GWF-(7,131,95)   127.9685    
        202         5         2                 1_GWF-(12,131,97)  -3.573544                     1_GWF-(5,115,101)  -120.5887    
        203         5         3                 1_GWF-(5,115,103)  -1.737328                     1_GWF-(5,115,101)   102.4054    
        204         5         4                   1_GWF-(6,98,66)  -1.342500                     1_GWF-(5,107,107)   108.4102    
        205         5         5                 1_GWF-(12,130,97)  -2.027358                     1_GWF-(5,108,106)  -170.8998    
        206         5         6                 1_GWF-(12,131,95)  -1.416026                     1_GWF-(5,128,105)  -124.6031    
        207         5         7                  1_GWF-(6,114,40)  0.8092843                     1_GWF-(5,128,105)   83.20089    
        208         5         8                1_GWF-(12,113,102) -0.8103558                     1_GWF-(5,128,105)  -59.95040    
        209         5         9                 1_GWF-(12,131,96) -0.6463597                     1_GWF-(5,108,106)   74.99990    
        210         5        10                 1_GWF-(12,131,95) -0.4718090                     1_GWF-(5,108,106)  -62.97659    
        211         5        11                 1_GWF-(12,123,82) -0.2917511                     1_GWF-(5,108,106)   34.53972    
        212         5        12                 1_GWF-(12,131,96) -0.3865836                     1_GWF-(11,131,96)   19.81239    
        213         5        13                 1_GWF-(12,131,95) -0.1763389                       1_GWF-(5,98,63)  -15.26629    
        214         5        14                 1_GWF-(12,130,98) -0.2400467                     1_GWF-(7,122,114)   17.19738    
        215         5        15                 1_GWF-(12,121,79)  0.1362909                     1_GWF-(11,131,96)   13.96279    
        216         5        16                 1_GWF-(12,131,96) -0.1555823                      1_GWF-(9,138,54)   13.07201    
        217         5        17                 1_GWF-(12,130,98) -0.1451836                      1_GWF-(9,138,54)  -13.34429    
        218         5        18                 1_GWF-(12,130,98) -0.9873479E-01                  1_GWF-(9,138,54)   10.10810    
        219         5        19                 1_GWF-(12,130,98)  0.1146480                     1_GWF-(11,131,96)   9.960222    
        220         5        20                 1_GWF-(12,121,79) -0.8909879E-01                 1_GWF-(5,107,107)  -9.140586    
        221         5        21                 1_GWF-(12,130,98) -0.1220913                       1_GWF-(3,98,64)  -8.312999    
        222         5        22                 1_GWF-(12,131,95) -0.1099601                     1_GWF-(11,131,96)   9.094259    
        223         5        23                  1_GWF-(6,114,40) -0.1429077                       1_GWF-(3,98,64)   13.73913    
        224         5        24                 1_GWF-(12,131,95)  0.1545377                     1_GWF-(11,131,96)  -12.22692    
        225         5        25                  1_GWF-(6,114,40)  0.1491895                       1_GWF-(5,97,63)  -15.42819    
        226         5        26                 1_GWF-(12,131,95) -0.1335888                     1_GWF-(11,131,96)   11.82060    
        227         5        27                 1_GWF-(12,131,97)  0.1710093                       1_GWF-(5,97,63)   15.09868    
        228         5        28                 1_GWF-(12,131,95)  0.1452653                     1_GWF-(11,131,96)  -10.54284    
        229         5        29                 1_GWF-(12,131,97) -0.1381352                       1_GWF-(5,97,63)  -13.45369    
        230         5        30                 1_GWF-(12,131,95) -0.1143882                     1_GWF-(11,131,96)   9.134931    
        231         5        31                 1_GWF-(12,131,97)  0.1294421                       1_GWF-(5,97,63)   11.19071    
        232         5        32                 1_GWF-(12,131,95)  0.1176692                      1_GWF-(5,114,66)  -8.761035    
        233         5        33                 1_GWF-(12,131,97) -0.1229152                       1_GWF-(5,97,63)  -12.91721    
        234         5        34                 1_GWF-(12,131,95) -0.1059287                      1_GWF-(5,114,66)   10.61179    
        235         5        35                 1_GWF-(12,131,97)  0.1242310                     1_GWF-(11,121,79)   14.26404    
        236         5        36                 1_GWF-(12,131,95)  0.8024907E-01                  1_GWF-(5,114,66)  -10.72680    
        237         5        37                 1_GWF-(12,131,97) -0.8749374E-01                 1_GWF-(11,121,79)  -11.35140    
        238         5        38                 1_GWF-(12,131,97) -0.9780451E-01                   1_GWF-(5,97,63)  -9.650576    
        239         5        39                 1_GWF-(12,131,95) -0.6228075E-01                  1_GWF-(5,114,66)   10.73079    
        240         5        40                 1_GWF-(12,131,97)  0.1120145                      1_GWF-(5,113,67)  -9.701856    
        241         5        41                 1_GWF-(12,121,79)  0.4995979E-01                  1_GWF-(5,114,66)  -13.12908    
        242         5        42                 1_GWF-(12,131,97) -0.7412655E-01                1_GWF-(11,106,106)  -7.958303    
        243         5        43                 1_GWF-(12,131,97) -0.7912338E-01                  1_GWF-(4,114,65)  -9.130635    
        244         5        44                 1_GWF-(12,131,95) -0.3018575E-01                  1_GWF-(5,114,66)   11.59751    
        245         5        45                 1_GWF-(12,131,97)  0.6439225E-01                  1_GWF-(3,115,67)  -8.032870    
        246         5        46                 1_GWF-(12,131,97)  0.4929988E-01                  1_GWF-(5,114,66)  -10.02547    
        247         5        47                 1_GWF-(6,105,107) -0.2531094E-01                  1_GWF-(5,114,66)  -10.07057    
        248         5        48                 1_GWF-(12,131,97) -0.5766751E-01                  1_GWF-(3,115,67)   7.984230    
        249         5        49                 1_GWF-(12,131,97) -0.4533350E-01                  1_GWF-(5,114,66)   9.560179    
        250         5        50                 1_GWF-(12,131,95) -0.2160485E-01                  1_GWF-(5,114,66)   9.293139    
        251         6         1                  1_GWF-(6,104,60)  -1.013364                      1_GWF-(5,100,59)  -11.65404    
        252         6         2                 1_GWF-(5,113,104) -0.4113434                    1_GWF-(11,137,100)   8.796546    
        253         6         3                1_GWF-(12,113,102) -0.4967699                      1_GWF-(5,100,59)   8.939049    
        254         6         4                1_GWF-(12,112,103) -0.1731152                      1_GWF-(9,138,54)   8.522822    
        255         6         5                  1_GWF-(6,102,40) -0.9825792E-01                  1_GWF-(9,138,54)  -12.72922    
        256         6         6                 1_GWF-(5,113,103)  0.7234565E-01                 1_GWF-(5,113,103)   9.114660    
        257         6         7                  1_GWF-(6,102,40)  0.1028520                      1_GWF-(5,100,59)   4.178807    
        258         6         8                1_GWF-(12,113,102)  0.6987183E-01                 1_GWF-(5,113,103)  -3.599594    
        259         6         9                  1_GWF-(6,102,40) -0.5264618E-01                 1_GWF-(5,113,103)   4.528427    
        260         6        10                1_GWF-(12,113,102) -0.3159813E-01                  1_GWF-(9,138,54)  -3.616126    
        261         6        11                  1_GWF-(6,102,40)  0.3566152E-01                 1_GWF-(5,113,103)  -3.771091    
        262         6        12                 1_GWF-(5,115,103) -0.2705790E-01                1_GWF-(11,137,100)   3.269009    
        263         6        13                  1_GWF-(6,102,40) -0.2310395E-01                 1_GWF-(5,113,103)   3.218174    
        264         6        14                 1_GWF-(5,115,103)  0.2660329E-01                1_GWF-(11,137,100)  -2.751622    
        265         6        15                1_GWF-(12,114,103)  0.1645887E-01                 1_GWF-(5,113,103)  -2.161747    
        266         6        16                1_GWF-(12,113,103)  0.1275009E-01                1_GWF-(11,137,100)   1.918247    
        267         6        17                 1_GWF-(5,115,103)  0.1354069E-01                 1_GWF-(5,113,103)   1.906096    
        268         6        18                1_GWF-(12,137,100) -0.1485737E-01                  1_GWF-(5,100,58)  -1.941958    
        269         6        19                 1_GWF-(5,115,103) -0.1621026E-01                 1_GWF-(5,113,103)  -1.595318    
        270         6        20                1_GWF-(12,139,101) -0.1109170E-01                  1_GWF-(5,100,58)   1.566743    
        271         6        21                1_GWF-(12,139,102) -0.9627694E-02                 1_GWF-(5,113,103)   1.330492    
        272         6        22                1_GWF-(12,113,102) -0.1151914E-01                  1_GWF-(5,100,58)  -1.280674    
        273         6        23                1_GWF-(12,139,102)  0.6993628E-02                 1_GWF-(5,113,103)  -1.141920    
        274         6        24                1_GWF-(12,113,102)  0.1073716E-01                 1_GWF-(9,137,101)  -1.381201    
        275         6        25                1_GWF-(12,139,102) -0.7451877E-02                  1_GWF-(5,100,58)   1.282224    
        276         6        26                1_GWF-(12,113,102) -0.9068634E-02                1_GWF-(11,137,100)  -2.201920    
        277         6        27                1_GWF-(12,139,101)  0.1071592E-01                 1_GWF-(7,137,100)   2.169669    
        278         6        28                1_GWF-(12,139,102)  0.9267409E-02                1_GWF-(11,137,100)   2.315561    
        279         6        29                1_GWF-(12,137,100)  0.1674349E-01                1_GWF-(11,137,100)   2.809984    
        280         6        30                1_GWF-(12,139,102) -0.9627037E-02                  1_GWF-(5,100,58)   2.300594    
        281         6        31                1_GWF-(12,113,102) -0.1231720E-01                1_GWF-(11,137,100)  -3.337143    
        282         6        32                1_GWF-(12,137,100) -0.1445413E-01                 1_GWF-(7,137,100)   2.678648    
        283         6        33                1_GWF-(12,139,102)  0.8635621E-02                  1_GWF-(5,100,58)  -1.869860    
        284         6        34                1_GWF-(12,137,100)  0.1198002E-01                1_GWF-(11,137,100)   3.226765    
        285         6        35                1_GWF-(12,137,100)  0.1396066E-01                1_GWF-(11,137,100)   2.788310    
        286         6        36                1_GWF-(12,113,103)  0.7523642E-02                 1_GWF-(7,137,100)  -1.990999    
        287         6        37                1_GWF-(12,137,100) -0.9000382E-02                1_GWF-(11,137,100)  -2.500498    
        288         6        38                1_GWF-(12,137,100) -0.1309406E-01                1_GWF-(11,137,100)  -2.967061    
        289         6        39                1_GWF-(12,137,100) -0.7621772E-02                 1_GWF-(7,137,100)   2.251122    
        290         6        40                1_GWF-(12,137,101)  0.5544655E-02                 1_GWF-(9,138,102)  -1.920584    
        291         6        41                1_GWF-(12,137,100)  0.1061441E-01                1_GWF-(11,137,100)   2.792280    
        292         6        42                1_GWF-(12,137,100)  0.1160889E-01                 1_GWF-(7,137,100)  -2.508720    
        293         6        43                1_GWF-(12,137,100)  0.6106601E-02                 1_GWF-(7,137,100)  -2.266876    
        294         6        44                 1_GWF-(5,115,103) -0.5360992E-02                 1_GWF-(9,138,102)   2.081414    
        295         6        45                1_GWF-(12,137,100) -0.9016581E-02                1_GWF-(11,137,100)  -3.158168    
        296         6        46                1_GWF-(12,137,100) -0.9919291E-02                1_GWF-(11,137,100)  -2.803163    
        297         6        47                1_GWF-(12,139,101)  0.5912748E-02                 1_GWF-(7,137,100)   2.575541    
        298         6        48                1_GWF-(12,139,102)  0.5055892E-02                 1_GWF-(9,138,102)  -1.921490    
        299         6        49                1_GWF-(12,137,100)  0.6668438E-02                1_GWF-(11,137,100)   2.555569    
        300         6        50                1_GWF-(12,137,100)  0.9015577E-02                1_GWF-(11,137,100)   3.033928    
        301         7         1                1_GWF-(11,116,104) -0.2147387                       1_GWF-(5,99,46) -0.5943899    
        302         7         2                   1_GWF-(6,99,46) -0.2794203E-01                  1_GWF-(9,138,54) -0.4860406    
        303         7         3                1_GWF-(11,116,104)  0.1103594E-01                  1_GWF-(9,138,54)  0.8412273    
        304         7         4                   1_GWF-(6,99,46)  0.1223636E-01                  1_GWF-(9,138,54) -0.5214098    
        305         7         5                1_GWF-(11,116,104) -0.1108487E-01                   1_GWF-(5,99,46) -0.6472664    
        306         7         6                1_GWF-(11,116,104)  0.8267807E-02                 1_GWF-(5,101,103)  0.2993443    
        307         7         7                   1_GWF-(6,99,46)  0.8863685E-02                   1_GWF-(5,99,46)  0.4641898    
        308         7         8                1_GWF-(11,116,104) -0.6871617E-02                   1_GWF-(5,99,46) -0.2843160    
        309         7         9                   1_GWF-(6,99,46) -0.1116063E-01                1_GWF-(11,137,100)  0.2744686    
        310         7        10                1_GWF-(11,116,104)  0.4706524E-02                   1_GWF-(5,99,46)  0.4493325    
        311         7        11                   1_GWF-(6,99,46)  0.9324397E-02                1_GWF-(11,137,100) -0.3977823    
        312         7        12                   1_GWF-(6,99,46) -0.4968207E-02                   1_GWF-(5,99,46) -0.5066891    
        313         7        13                   1_GWF-(6,99,46) -0.6375139E-02                1_GWF-(11,137,100)  0.3672204    
        314         7        14                   1_GWF-(6,99,46)  0.4718923E-02                   1_GWF-(5,99,46)  0.3309855    
        315         7        15                   1_GWF-(6,99,46)  0.5153255E-02                1_GWF-(11,137,100) -0.3134165    
        316         7        16                   1_GWF-(6,99,46) -0.4827655E-02                1_GWF-(11,137,100)  0.2692009    
        317         7        17                   1_GWF-(6,99,46) -0.3894974E-02                 1_GWF-(7,137,100) -0.3070337    
        318         7        18                   1_GWF-(6,99,46)  0.4188241E-02                1_GWF-(11,137,100) -0.3440183    
        319         7        19                   1_GWF-(6,99,46)  0.3679273E-02                 1_GWF-(7,137,100)  0.2934012    
        320         7        20                   1_GWF-(6,99,46) -0.2444866E-02                1_GWF-(11,137,100)  0.3437948    
        321         7        21                   1_GWF-(6,99,46) -0.4591723E-02                 1_GWF-(7,137,100) -0.3575323    
        322         7        22                1_GWF-(12,117,103) -0.1416014E-02                 1_GWF-(9,138,102)  0.2984268    
        323         7        23                   1_GWF-(6,99,46)  0.4564504E-02                1_GWF-(11,137,100) -0.4229108    
        324         7        24                   1_GWF-(6,99,46)  0.1395852E-02                 1_GWF-(7,137,100)  0.2457391    
        325         7        25                   1_GWF-(6,99,46) -0.2699186E-02                1_GWF-(11,137,100)  0.3829688    
        326         7        26                   1_GWF-(6,99,46) -0.2939442E-02                 1_GWF-(7,137,100) -0.3510817    
        327         7        27                1_GWF-(12,139,102) -0.1103376E-02                1_GWF-(11,137,100) -0.2397801    
        328         7        28                   1_GWF-(6,99,46)  0.2996275E-02                1_GWF-(11,137,100) -0.4551284    
        329         7        29                   1_GWF-(6,99,46)  0.2315739E-02                 1_GWF-(7,137,100)  0.3604818    
        330         7        30                1_GWF-(12,137,101)  0.1174837E-02                1_GWF-(11,137,100)  0.3366909    
        331         7        31                   1_GWF-(6,99,46) -0.2724942E-02                1_GWF-(11,137,100)  0.4717618    
        332         7        32                   1_GWF-(6,99,46) -0.2011178E-02                 1_GWF-(7,137,100) -0.3466505    
        333         7        33                1_GWF-(12,137,101) -0.9953217E-03                1_GWF-(11,137,100) -0.2884620    
        334         7        34                   1_GWF-(6,99,46)  0.1876948E-02                1_GWF-(11,137,100) -0.4769805    
        335         7        35                   1_GWF-(6,99,46)  0.1950221E-02                 1_GWF-(7,137,100)  0.3878122    
        336         7        36                1_GWF-(12,139,102)  0.9513764E-03                 1_GWF-(9,138,102) -0.2108032    
        337         7        37                1_GWF-(12,137,100)  0.1484631E-02                1_GWF-(11,137,100)  0.4966411    
        338         7        38                   1_GWF-(6,99,46) -0.1859623E-02                1_GWF-(11,137,100)  0.5338494    
        339         7        39                   1_GWF-(6,99,46) -0.1757740E-02                 1_GWF-(7,137,100) -0.4359653    
        340         7        40                1_GWF-(12,137,101) -0.1012986E-02                 1_GWF-(9,138,102)  0.2849492    
        341         7        41                1_GWF-(12,137,100) -0.1630352E-02                1_GWF-(11,137,100) -0.5914381    
        342         7        42                1_GWF-(12,137,100) -0.1848754E-02                1_GWF-(11,137,100) -0.6524558    
        343         7        43                   1_GWF-(6,99,46)  0.1698656E-02                 1_GWF-(7,137,100)  0.5597037    
        344         7        44                   1_GWF-(6,99,46)  0.1107342E-02                 1_GWF-(7,137,100)  0.3512535    
        345         7        45                1_GWF-(12,137,100)  0.1127056E-02                1_GWF-(11,137,100)  0.4351367    
        346         7        46                1_GWF-(12,137,100)  0.1646524E-02                1_GWF-(11,137,100)  0.6599039    
        347         7        47                1_GWF-(12,137,100)  0.1485041E-02                1_GWF-(11,137,100)  0.6363974    
        348         7        48                   1_GWF-(6,99,46) -0.1293979E-02                 1_GWF-(7,137,100) -0.5298305    
        349         7        49                   1_GWF-(6,99,46) -0.9753390E-03                 1_GWF-(7,137,100) -0.3781646    
        350         7        50                1_GWF-(12,137,101) -0.7358422E-03                 1_GWF-(9,138,102)  0.3102243    
        351         8         1                1_GWF-(12,137,100) -0.2145044E-02                 1_GWF-(7,137,100)  0.5182499E-01
        352         8         2                   1_GWF-(6,99,46)  0.7005602E-03                1_GWF-(11,137,100)  0.1382595    
        353         8         3                   1_GWF-(6,99,46) -0.5086539E-03                 1_GWF-(7,137,100) -0.7281795E-01
        354         8         4                1_GWF-(12,137,100) -0.8677046E-03                1_GWF-(11,137,100) -0.1460209    
        355         8         5                   1_GWF-(6,99,46)  0.7237009E-03                1_GWF-(11,138,102)  0.5877653E-01
        356         8         6                1_GWF-(12,137,100)  0.7574044E-03                 1_GWF-(7,137,100) -0.1108656    
        357         8         7                   1_GWF-(6,99,46) -0.5674942E-03                1_GWF-(11,137,100) -0.1078508    
        358         8         8                1_GWF-(12,137,100) -0.8474173E-03                 1_GWF-(7,137,100)  0.1183193    
        359         8         9                   1_GWF-(6,99,46)  0.4942483E-03                1_GWF-(11,137,100)  0.1278280    
        360         8        10                1_GWF-(12,137,100)  0.8387890E-03                 1_GWF-(7,137,100) -0.1313389    
        361         8        11                1_GWF-(12,137,101) -0.5144690E-03                1_GWF-(11,137,100) -0.1147228    
        362         8        12                1_GWF-(12,137,100) -0.9395647E-03                 1_GWF-(7,137,100)  0.1370652    
        363         8        13                1_GWF-(12,139,102)  0.3625967E-03                 1_GWF-(9,138,102) -0.7906355E-01
        364         8        14                1_GWF-(12,137,100)  0.6794976E-03                1_GWF-(11,137,100)  0.1502999    
        365         8        15                1_GWF-(12,139,101) -0.3791757E-03                 1_GWF-(7,137,100) -0.1096492    
        366         8        16                1_GWF-(12,137,101) -0.3841172E-03                1_GWF-(11,137,100) -0.1136357    
        367         8        17                1_GWF-(12,137,100) -0.6171168E-03                1_GWF-(11,137,100) -0.1592190    
        368         8        18                1_GWF-(12,139,102)  0.3131240E-03                 1_GWF-(7,137,100)  0.1067275    
        369         8        19                1_GWF-(12,137,101)  0.3212199E-03                1_GWF-(11,137,100)  0.9354477E-01
        370         8        20                1_GWF-(12,137,100)  0.5405519E-03                1_GWF-(11,137,100)  0.1494444    
        371         8        21                1_GWF-(12,137,100)  0.3822884E-03                 1_GWF-(7,137,100) -0.1244878    
        372         8        22                1_GWF-(12,139,102) -0.2683194E-03                 1_GWF-(9,138,102)  0.8009248E-01
        373         8        23                1_GWF-(12,137,100) -0.3859179E-03                1_GWF-(11,137,100) -0.1367604    
        374         8        24                1_GWF-(12,137,100) -0.4843327E-03                1_GWF-(11,137,100) -0.1547621    
        375         8        25                1_GWF-(12,137,100) -0.2897874E-03                 1_GWF-(7,137,100)  0.1294462    
        376         8        26                1_GWF-(12,139,102)  0.2534113E-03                 1_GWF-(9,138,102) -0.7986447E-01
        377         8        27                1_GWF-(12,137,100)  0.3193299E-03                1_GWF-(11,137,100)  0.1135234    
        378         8        28                1_GWF-(12,137,100)  0.4271317E-03                1_GWF-(11,137,100)  0.1499056    
        379         8        29                1_GWF-(12,137,100)  0.3475633E-03                 1_GWF-(7,137,100) -0.1272953    
        380         8        30                1_GWF-(12,139,102) -0.2047599E-03                 1_GWF-(7,137,100) -0.1130122    
        381         8        31                1_GWF-(12,137,101) -0.1835899E-03                 1_GWF-(9,138,102)  0.7399903E-01
        382         8        32                1_GWF-(12,137,100) -0.2494743E-03                1_GWF-(11,137,100) -0.1108925    
        383         8        33                1_GWF-(12,137,100) -0.3342601E-03                1_GWF-(11,137,100) -0.1482826    
        384         8        34                1_GWF-(12,137,100) -0.3099882E-03                1_GWF-(11,137,100) -0.1409002    
        385         8        35                1_GWF-(12,139,101)  0.1992138E-03                 1_GWF-(7,137,100)  0.1290841    
        386         8        36                1_GWF-(12,139,102)  0.1919103E-03                 1_GWF-(7,137,100)  0.1017724    
        387         8        37                1_GWF-(12,137,101)  0.1819420E-03                 1_GWF-(9,138,102) -0.8028807E-01
        388         8        38                1_GWF-(12,137,100)  0.2570641E-03                1_GWF-(11,137,100)  0.1180410    
        389         8        39                1_GWF-(12,137,100)  0.3229977E-03                1_GWF-(11,137,100)  0.1554683    
        390         8        40                1_GWF-(12,137,100)  0.3156716E-03                1_GWF-(11,137,100)  0.1593040    
        391         8        41                1_GWF-(12,137,100)  0.2434144E-03                 1_GWF-(7,137,100) -0.1423766    
        392         8        42                1_GWF-(12,139,102) -0.1527625E-03                 1_GWF-(7,137,100) -0.1342163    
        393         8        43                1_GWF-(12,139,102) -0.1473259E-03                 1_GWF-(7,137,100) -0.1021129    
        394         8        44                1_GWF-(12,137,101) -0.1416227E-03                 1_GWF-(9,138,102)  0.8131533E-01
        395         8        45                1_GWF-(12,137,100) -0.2041193E-03                1_GWF-(11,137,100) -0.1098572    
        396         8        46                1_GWF-(12,137,100) -0.2545017E-03                1_GWF-(11,137,100) -0.1475755    
        397         8        47                1_GWF-(12,137,100) -0.2610542E-03                1_GWF-(11,137,100) -0.1622203    
        398         8        48                1_GWF-(12,137,100) -0.2276589E-03                1_GWF-(11,137,100) -0.1533440    
        399         8        49                1_GWF-(12,137,100) -0.1645839E-03                 1_GWF-(7,137,100)  0.1412371    
        400         8        50                1_GWF-(12,139,102)  0.1391371E-03                 1_GWF-(7,137,100)  0.1327368    
        401         9         1                1_GWF-(12,137,100)  0.7023979E-03                1_GWF-(11,137,100)  0.1775297E-01
        402         9         2                1_GWF-(12,139,102) -0.1240974E-03                1_GWF-(11,137,100) -0.2161120E-01
        403         9         3                1_GWF-(12,137,100) -0.1911879E-03                 1_GWF-(7,137,100)  0.2215010E-01
        404         9         4                1_GWF-(12,139,102)  0.1149605E-03                1_GWF-(11,137,100)  0.3467574E-01
        405         9         5                1_GWF-(12,137,100)  0.1943686E-03                 1_GWF-(7,137,100) -0.2948206E-01
        406         9         6                1_GWF-(12,137,100) -0.1726572E-03                1_GWF-(11,137,100) -0.4351138E-01
        407         9         7                1_GWF-(12,137,100) -0.2147975E-03                 1_GWF-(7,137,100)  0.3775807E-01
        408         9         8                1_GWF-(12,137,100)  0.2155236E-03                1_GWF-(11,137,100)  0.4493143E-01
        409         9         9                1_GWF-(12,137,100)  0.2105319E-03                 1_GWF-(7,137,100) -0.4281752E-01
        410         9        10                1_GWF-(12,137,100) -0.1751923E-03                1_GWF-(11,137,100) -0.4728704E-01
        411         9        11                1_GWF-(12,137,100) -0.2922649E-03                 1_GWF-(7,137,100)  0.5300540E-01
        412         9        12                1_GWF-(12,139,102)  0.1391349E-03                 1_GWF-(9,138,102) -0.2969248E-01
        413         9        13                1_GWF-(12,137,100)  0.2391459E-03                1_GWF-(11,137,100)  0.5228411E-01
        414         9        14                1_GWF-(12,137,100)  0.1574989E-03                 1_GWF-(7,137,100) -0.4126515E-01
        415         9        15                1_GWF-(12,137,101) -0.1198024E-03                1_GWF-(11,137,100) -0.2983054E-01
        416         9        16                1_GWF-(12,137,100) -0.2093963E-03                1_GWF-(11,137,100) -0.5302577E-01
        417         9        17                1_GWF-(12,137,100) -0.1507538E-03                 1_GWF-(7,137,100)  0.4258813E-01
        418         9        18                1_GWF-(12,139,102)  0.1035928E-03                 1_GWF-(9,138,102) -0.2774097E-01
        419         9        19                1_GWF-(12,137,100)  0.1771424E-03                1_GWF-(11,137,100)  0.4989711E-01
        420         9        20                1_GWF-(12,137,100)  0.1929189E-03                 1_GWF-(7,137,100) -0.4779168E-01
        421         9        21                1_GWF-(12,139,102) -0.9821085E-04                 1_GWF-(7,137,100) -0.4176685E-01
        422         9        22                1_GWF-(12,137,101) -0.9192528E-04                 1_GWF-(9,138,102)  0.3055658E-01
        423         9        23                1_GWF-(12,137,100) -0.1699974E-03                1_GWF-(11,137,100) -0.5482803E-01
        424         9        24                1_GWF-(12,137,100) -0.1681984E-03                1_GWF-(11,137,100) -0.5325127E-01
        425         9        25                1_GWF-(12,139,102)  0.9194387E-04                 1_GWF-(7,137,100)  0.4877205E-01
        426         9        26                1_GWF-(12,137,101)  0.8509239E-04                 1_GWF-(9,138,102) -0.2893320E-01
        427         9        27                1_GWF-(12,137,100)  0.1211309E-03                1_GWF-(11,137,100)  0.4234688E-01
        428         9        28                1_GWF-(12,137,100)  0.1556602E-03                1_GWF-(11,137,100)  0.5682132E-01
        429         9        29                1_GWF-(12,137,100)  0.1301718E-03                1_GWF-(11,137,100)  0.5061565E-01
        430         9        30                1_GWF-(12,139,102) -0.6997835E-04                 1_GWF-(7,137,100) -0.4672805E-01
        431         9        31                1_GWF-(12,139,102) -0.6466101E-04                 1_GWF-(7,137,100) -0.3115975E-01
        432         9        32                1_GWF-(12,137,100) -0.7307131E-04                1_GWF-(11,137,100) -0.2908357E-01
        433         9        33                1_GWF-(12,137,100) -0.1101964E-03                1_GWF-(11,137,100) -0.4790275E-01
        434         9        34                1_GWF-(12,137,100) -0.1151007E-03                1_GWF-(11,137,100) -0.5369174E-01
        435         9        35                1_GWF-(12,137,100) -0.9156946E-04                1_GWF-(11,137,100) -0.4635264E-01
        436         9        36                1_GWF-(12,139,102)  0.5737546E-04                 1_GWF-(7,137,100)  0.4430042E-01
        437         9        37                1_GWF-(12,139,102)  0.5561944E-04                 1_GWF-(7,137,100)  0.3375241E-01
        438         9        38                1_GWF-(12,137,101)  0.5375495E-04                 1_GWF-(9,138,102) -0.2742231E-01
        439         9        39                1_GWF-(12,137,100)  0.7701744E-04                1_GWF-(11,137,100)  0.3737102E-01
        440         9        40                1_GWF-(12,137,100)  0.9447878E-04                1_GWF-(11,137,100)  0.4964590E-01
        441         9        41                1_GWF-(12,137,100)  0.9450404E-04                1_GWF-(11,137,100)  0.5297128E-01
        442         9        42                1_GWF-(12,137,100)  0.7909036E-04                1_GWF-(11,137,100)  0.4743725E-01
        443         9        43                1_GWF-(12,137,100)  0.5262596E-04                 1_GWF-(7,137,100) -0.4622221E-01
        444         9        44                1_GWF-(12,139,102) -0.4652845E-04                 1_GWF-(7,137,100) -0.4056630E-01
        445         9        45                1_GWF-(12,137,101) -0.4198393E-04                 1_GWF-(7,137,100) -0.2934517E-01
        446         9        46                1_GWF-(12,137,101) -0.4229992E-04                 1_GWF-(9,138,102)  0.2844300E-01
        447         9        47                1_GWF-(12,137,100) -0.6311978E-04                1_GWF-(11,137,100) -0.3825856E-01
        448         9        48                1_GWF-(12,137,100) -0.7610042E-04                1_GWF-(11,137,100) -0.4940582E-01
        449         9        49                1_GWF-(12,137,100) -0.7917967E-04                1_GWF-(11,137,100) -0.5455806E-01
        450         9        50                1_GWF-(12,137,100) -0.7279441E-04                1_GWF-(11,137,100) -0.5345883E-01
        451        10         1                1_GWF-(12,137,101)  0.1293518E-03                1_GWF-(11,137,100)  0.4414895E-02
        452        10         2                1_GWF-(12,137,100)  0.7524597E-04                 1_GWF-(7,137,100) -0.1050866E-01
        453        10         3                1_GWF-(12,137,100) -0.5858027E-04                1_GWF-(11,137,100) -0.9669258E-02
        454        10         4                1_GWF-(12,137,100) -0.6748991E-04                 1_GWF-(7,137,100)  0.7833574E-02
        455        10         5                1_GWF-(12,137,100)  0.9435111E-04                1_GWF-(11,137,100)  0.1351603E-01
        456        10         6                1_GWF-(12,139,102) -0.5411660E-04                 1_GWF-(9,138,102)  0.8102294E-02
        457        10         7                1_GWF-(12,137,100) -0.9717160E-04                1_GWF-(11,137,100) -0.1509614E-01
        458        10         8                1_GWF-(12,139,102)  0.5088884E-04                 1_GWF-(9,138,102) -0.7594357E-02
        459        10         9                1_GWF-(12,137,100)  0.8528260E-04                1_GWF-(11,137,100)  0.1602657E-01
        460        10        10                1_GWF-(12,139,102) -0.4862036E-04                 1_GWF-(7,137,100) -0.8102486E-02
        461        10        11                1_GWF-(12,137,100) -0.7179450E-04                1_GWF-(11,137,100) -0.1541717E-01
        462        10        12                1_GWF-(12,137,100) -0.6323925E-04                 1_GWF-(7,137,100)  0.1323756E-01
        463        10        13                1_GWF-(12,137,101)  0.4002070E-04                1_GWF-(11,137,100)  0.1103187E-01
        464        10        14                1_GWF-(12,137,100)  0.7904514E-04                1_GWF-(11,137,100)  0.1695454E-01
        465        10        15                1_GWF-(12,139,102) -0.3800954E-04                 1_GWF-(7,137,100) -0.1257115E-01
        466        10        16                1_GWF-(12,137,101) -0.3251273E-04                1_GWF-(11,137,100) -0.9104598E-02
        467        10        17                1_GWF-(12,137,100) -0.6348259E-04                1_GWF-(11,137,100) -0.1489076E-01
        468        10        18                1_GWF-(12,137,100) -0.4478108E-04                 1_GWF-(7,137,100)  0.1359792E-01
        469        10        19                1_GWF-(12,139,102)  0.3023054E-04                 1_GWF-(9,138,102) -0.9106369E-02
        470        10        20                1_GWF-(12,137,100)  0.4950782E-04                1_GWF-(11,137,100)  0.1550541E-01
        471        10        21                1_GWF-(12,137,100)  0.5669720E-04                1_GWF-(11,137,100)  0.1613732E-01
        472        10        22                1_GWF-(12,137,100)  0.2936258E-04                 1_GWF-(7,137,100) -0.1376783E-01
        473        10        23                1_GWF-(12,137,101) -0.2553560E-04                 1_GWF-(9,138,102)  0.8530117E-02
        474        10        24                1_GWF-(12,137,100) -0.3743341E-04                1_GWF-(11,137,100) -0.1326174E-01
        475        10        25                1_GWF-(12,137,100) -0.4527858E-04                1_GWF-(11,137,100) -0.1589905E-01
        476        10        26                1_GWF-(12,137,100) -0.3312106E-04                 1_GWF-(7,137,100)  0.1339298E-01
        477        10        27                1_GWF-(12,139,102)  0.2208243E-04                 1_GWF-(7,137,100)  0.1100857E-01
        478        10        28                1_GWF-(12,137,101)  0.1972178E-04                 1_GWF-(9,138,102) -0.7687468E-02
        479        10        29                1_GWF-(12,137,100)  0.2897993E-04                1_GWF-(11,137,100)  0.1157317E-01
        480        10        30                1_GWF-(12,137,100)  0.3401735E-04                1_GWF-(11,137,100)  0.1402011E-01
        481        10        31                1_GWF-(12,137,100)  0.2876994E-04                1_GWF-(11,137,100)  0.1225581E-01
        482        10        32                1_GWF-(12,137,100)  0.1631917E-04                 1_GWF-(7,137,100) -0.1135224E-01
        483        10        33                1_GWF-(12,139,102) -0.1549634E-04                 1_GWF-(7,137,100) -0.8423288E-02
        484        10        34                1_GWF-(12,137,101) -0.1431218E-04                 1_GWF-(9,138,102)  0.7089099E-02
        485        10        35                1_GWF-(12,137,100) -0.2212864E-04                1_GWF-(11,137,100) -0.1030353E-01
        486        10        36                1_GWF-(12,137,100) -0.2602958E-04                1_GWF-(11,137,100) -0.1258796E-01
        487        10        37                1_GWF-(12,137,100) -0.2433766E-04                1_GWF-(11,137,100) -0.1219850E-01
        488        10        38                1_GWF-(12,137,100) -0.1803157E-04                 1_GWF-(7,137,100)  0.1098339E-01
        489        10        39                1_GWF-(12,139,102)  0.1316242E-04                 1_GWF-(7,137,100)  0.1015189E-01
        490        10        40                1_GWF-(12,139,102)  0.1197474E-04                 1_GWF-(7,137,100)  0.7557363E-02
        491        10        41                1_GWF-(12,137,101)  0.1150497E-04                 1_GWF-(9,138,102) -0.7003721E-02
        492        10        42                1_GWF-(12,137,100)  0.1700011E-04                1_GWF-(11,137,100)  0.9168150E-02
        493        10        43                1_GWF-(12,137,100)  0.2072727E-04                1_GWF-(11,137,100)  0.1170917E-01
        494        10        44                1_GWF-(12,137,100)  0.2111830E-04                1_GWF-(11,137,100)  0.1248059E-01
        495        10        45                1_GWF-(12,137,100)  0.1849517E-04                1_GWF-(11,137,100)  0.1150722E-01
        496        10        46                1_GWF-(12,137,100)  0.1363866E-04                 1_GWF-(7,137,100) -0.1083182E-01
        497        10        47                1_GWF-(12,139,102) -0.1049309E-04                 1_GWF-(7,137,100) -0.1020064E-01
        498        10        48                1_GWF-(12,139,102) -0.9983911E-05                 1_GWF-(7,137,100) -0.8361159E-02
        499        11         1                1_GWF-(12,137,100) -0.6055691E-04                 1_GWF-(7,137,100)  0.1402644E-02
        500        11         2                1_GWF-(12,137,101)  0.1235563E-04                1_GWF-(11,137,100)  0.4335715E-02
        501        11         3                1_GWF-(12,139,102) -0.1608761E-04                 1_GWF-(9,138,102)  0.1682333E-02
        502        11         4                1_GWF-(12,137,100) -0.1976951E-04                1_GWF-(11,137,100) -0.4233082E-02
        503        11         5                1_GWF-(12,139,102)  0.1453002E-04                 1_GWF-(9,138,102) -0.1991084E-02
        504        11         6                1_GWF-(12,137,100)  0.3191653E-04                 1_GWF-(7,137,100) -0.4724580E-02
        505        11         7                1_GWF-(12,139,102) -0.1525928E-04                 1_GWF-(9,138,102)  0.2597855E-02
        506        11         8                1_GWF-(12,137,100) -0.3138681E-04                1_GWF-(11,137,100) -0.4741467E-02
        507        11         9                1_GWF-(12,139,102)  0.1749135E-04                 1_GWF-(9,138,102) -0.3232478E-02
        508        11        10                1_GWF-(12,137,100)  0.2939907E-04                1_GWF-(11,137,100)  0.5318767E-02
        509        11        11                1_GWF-(12,137,100)  0.1717175E-04                 1_GWF-(7,137,100) -0.3686187E-02
        510        11        12                1_GWF-(12,137,100) -0.1717145E-04                1_GWF-(11,137,100) -0.5095968E-02
        511        11        13                1_GWF-(12,137,100) -0.2772608E-04                 1_GWF-(7,137,100)  0.5141061E-02
        512        11        14                1_GWF-(12,139,102)  0.1491514E-04                 1_GWF-(9,138,102) -0.3094835E-02
        513        11        15                1_GWF-(12,137,100)  0.2103533E-04                1_GWF-(11,137,100)  0.5592494E-02
        514        11        16                1_GWF-(12,137,100)  0.2108994E-04                 1_GWF-(7,137,100) -0.4690209E-02
        515        11        17                1_GWF-(12,139,102) -0.1251049E-04                 1_GWF-(7,137,100) -0.2985260E-02
        516        11        18                1_GWF-(12,137,100) -0.1380157E-04                1_GWF-(11,137,100) -0.4760018E-02
        517        11        19                1_GWF-(12,137,100) -0.2047267E-04                1_GWF-(11,137,100) -0.5756485E-02
        518        11        20                1_GWF-(12,137,100) -0.1250616E-04                 1_GWF-(7,137,100)  0.4828276E-02
        519        11        21                1_GWF-(12,137,101)  0.9948069E-05                 1_GWF-(9,138,102) -0.3077109E-02

 UBDSV1 SAVING     FLOW-JA-FACE ON UNIT   1015 AT TIME STEP      1, STRESS PERIOD      1
 UBDSV06 SAVING              WEL IN MODEL EGEBJERG         PACKAGE EGEBJERG        CONNECTED TO MODEL EGEBJERG         PACKAGE WEL_0            ON UNIT   1015 AT TIME STEP      1, STRESS PERIOD      1
 UBDSV06 SAVING              DRN IN MODEL EGEBJERG         PACKAGE EGEBJERG        CONNECTED TO MODEL EGEBJERG         PACKAGE DRN_0            ON UNIT   1015 AT TIME STEP      1, STRESS PERIOD      1
 UBDSV06 SAVING              GHB IN MODEL EGEBJERG         PACKAGE EGEBJERG        CONNECTED TO MODEL EGEBJERG         PACKAGE GHB_0            ON UNIT   1015 AT TIME STEP      1, STRESS PERIOD      1
 UBDSV06 SAVING              RCH IN MODEL EGEBJERG         PACKAGE EGEBJERG        CONNECTED TO MODEL EGEBJERG         PACKAGE RCH_0            ON UNIT   1015 AT TIME STEP      1, STRESS PERIOD      1

 HEAD WILL BE SAVED ON UNIT 1016 AT END OF TIME STEP    1, STRESS PERIOD    1


  VOLUME BUDGET FOR ENTIRE MODEL AT END OF TIME STEP    1, STRESS PERIOD   1
  ---------------------------------------------------------------------------------------------------

     CUMULATIVE VOLUME      L**3       RATES FOR THIS TIME STEP      L**3/T          PACKAGE NAME    
     ------------------                 ------------------------                     ----------------

           IN:                                      IN:
           ---                                      ---
                 WEL =           0.0000                   WEL =           0.0000     WEL_0           
                 DRN =           0.0000                   DRN =           0.0000     DRN_0           
                 GHB =           0.0000                   GHB =           0.0000     GHB_0           
                 RCH =       92090.7900                   RCH =       92090.7900     RCH_0           

            TOTAL IN =       92090.7900              TOTAL IN =       92090.7900

          OUT:                                     OUT:
          ----                                     ----
                 WEL =       13833.2260                   WEL =       13833.2260     WEL_0           
                 DRN =       55451.1996                   DRN =       55451.1996     DRN_0           
                 GHB =       22806.4051                   GHB =       22806.4051     GHB_0           
                 RCH =           0.0000                   RCH =           0.0000     RCH_0           

           TOTAL OUT =       92090.8307             TOTAL OUT =       92090.8307

            IN - OUT =      -4.0651E-02              IN - OUT =      -4.0651E-02

 PERCENT DISCREPANCY =          -0.00     PERCENT DISCREPANCY =          -0.00




         TIME SUMMARY AT END OF TIME STEP    1 IN STRESS PERIOD    1
                    SECONDS     MINUTES      HOURS       DAYS        YEARS
                    -----------------------------------------------------------
   TIME STEP LENGTH  86400.      1440.0      24.000      1.0000     2.73785E-03
 STRESS PERIOD TIME  86400.      1440.0      24.000      1.0000     2.73785E-03
         TOTAL TIME  86400.      1440.0      24.000      1.0000     2.73785E-03
